Version 4
SHEET 1 880 1480
WIRE 176 -16 80 -16
WIRE 176 0 176 -16
WIRE -304 16 -304 0
WIRE 80 32 80 -16
WIRE 240 80 176 80
WIRE 80 176 80 112
WIRE 176 176 176 160
WIRE 176 176 80 176
WIRE 48 448 32 448
WIRE 192 448 48 448
WIRE 48 464 48 448
WIRE 288 464 256 464
WIRE 192 480 160 480
WIRE 160 592 160 480
WIRE 192 592 160 592
WIRE 288 592 288 464
WIRE 288 592 256 592
WIRE 160 672 160 592
WIRE 192 672 160 672
WIRE 288 672 288 592
WIRE 288 672 256 672
WIRE 160 752 160 672
WIRE 192 752 160 752
WIRE 288 752 288 672
WIRE 288 752 256 752
WIRE 160 848 160 752
WIRE 176 848 160 848
WIRE 288 848 288 752
WIRE 288 848 256 848
WIRE 160 880 160 848
FLAG -304 0 IN
FLAG -32 448 IN
FLAG 224 496 VDD
FLAG 240 80 0
FLAG 176 -16 VDD
FLAG 176 176 VSS
FLAG 224 432 VSS
FLAG 160 1024 VSS
FLAG 48 544 0
FLAG -304 96 VSS
SYMBOL voltage -304 0 R0
WINDOW 0 -32 56 VBottom 2
WINDOW 3 32 56 Invisible 2
WINDOW 123 0 0 Left 0
WINDOW 39 0 0 Left 0
SYMATTR InstName V2
SYMATTR Value PULSE(0 250m 0 {0.5/freq} {0.5/freq} 0 {1/freq})
SYMBOL voltage 80 16 R0
WINDOW 123 0 0 Left 0
WINDOW 39 0 0 Left 0
SYMATTR InstName V3
SYMATTR Value 9
SYMBOL res 32 448 R0
SYMATTR InstName R4
SYMATTR Value 1m
SYMBOL OpAmps\\opamp2 224 528 M180
SYMATTR InstName U1
SYMATTR Value TL072
SYMBOL diode 192 688 R270
WINDOW 0 32 32 VTop 2
WINDOW 3 0 32 VBottom 2
SYMATTR InstName D1
SYMATTR Value 1N4148
SYMBOL diode 256 736 R90
WINDOW 0 0 32 VBottom 2
WINDOW 3 32 32 VTop 2
SYMATTR InstName D2
SYMATTR Value 1N4148
SYMBOL res 272 832 R90
WINDOW 0 0 56 VBottom 2
WINDOW 3 32 56 VTop 2
SYMATTR InstName R7
SYMATTR Value 50k
SYMBOL res 144 864 R0
SYMATTR InstName R8
SYMATTR Value 1k
SYMBOL cap 32 432 R90
WINDOW 0 0 32 VBottom 2
WINDOW 3 32 32 VTop 2
SYMATTR InstName C1
SYMATTR Value 22n
SYMBOL cap 256 576 R90
WINDOW 0 0 32 VBottom 2
WINDOW 3 32 32 VTop 2
SYMATTR InstName C3
SYMATTR Value 470p
SYMBOL cap 144 960 R0
SYMATTR InstName C4
SYMATTR Value 220n
SYMBOL res 160 -16 R0
SYMATTR InstName R1
SYMATTR Value 10k
SYMBOL res 160 64 R0
SYMATTR InstName R2
SYMATTR Value 10k
TEXT -208 -136 Left 2 !.tran 0.025
TEXT -1008 568 Left 2 !.SUBCKT TL072    1 2 3 4 5\n*\n  C1   11 12 3.498E-12\n  C2    6  7 15.00E-12\n  DC    5 53 DX\n  DE   54  5 DX\n  DLP  90 91 DX\n  DLN  92 90 DX\n  DP    4  3 DX\n  EGND 99  0 POLY(2) (3,0) (4,0) 0 .5 .5\n  FB    7 99 POLY(5) VB VC VE VLP VLN 0 4.715E6 -5E6 5E6 5E6 -5E6\n  GA    6  0 11 12 282.8E-6\n  GCM   0  6 10 99 8.942E-9\n  ISS   3 10 DC 195.0E-6\n  HLIM 90  0 VLIM 1K\n  J1   11  2 10 JX\n  J2   12  1 10 JX\n  R2    6  9 100.0E3\n  RD1   4 11 3.536E3\n  RD2   4 12 3.536E3\n  RO1   8  5 150\n  RO2   7 99 150\n  RP    3  4 2.143E3\n  RSS  10 99 1.026E6\n  VB    9  0 DC 0\n  VC    3 53 DC 2.200\n  VE   54  4 DC 2.200\n  VLIM  7  8 DC 0\n  VLP  91  0 DC 25\n  VLN   0 92 DC 25\n.MODEL DX D(IS=800.0E-18)\n.MODEL JX PJF(IS=15.00E-12 BETA=270.1E-6 VTO=-1)\n.ENDS
TEXT -536 576 Left 2 !.param freq=100
